<?xml version="1.0" encoding="UTF-8"?>

<configuration xmlns:xsi="http://www.w3.org/2001/XMLSchema-instance" xsi:noNamespaceSchemaLocation="http://sumo.dlr.de/xsd/sumoConfiguration.xsd">

    <input>
        <net-file value="ireland-national-n7-network.net.xml"/>
		<!-- <route-files value="ireland-national-n7-routes.rou.xml"/> -->
		<additional-files value="ireland-national-n7-vtypes.add.xml,ireland-national-n7-routes.rou.xml,ireland-national-n7-emitters.emi.xml,ireland-national-n7-detectors.poi.xml"/>
		<!-- <additional-files value="ireland-national-n7-vtypes.add.xml,ireland-national-n7-emitters.emi.xml,ireland-national-n7-detectors.poi.xml"/> -->
    </input>

	
    <time>
        <begin value="61201"/>
        <end value="64800"/>
        <step-length value="0.5"/>
    </time>


	<processing>
		<emergencydecel.warning-threshold value="5"/>
		<collision.mingap-factor value="0"/>
	</processing>
	
	<report>
 		<xml-validation value="never"/>
	</report>
	
	<gui_only>
        <start value="true"/>
    </gui_only>

</configuration>